power-flow-agent/results/ieee14/2026-09-21/gpt-5.6-sol/pfagent/traces/07_case14-ambiguous-027-s0.transcript.txt
==============================================================================
TRANSCRIPT  pfagent  |  openrouter:openai/gpt-5.6-sol  |  case14  |  case14-ambiguous-027-s0  run 0
==============================================================================
date: 2026-09-21   seed: 0   difficulty: ambiguous   tool variant: load_split

[system]   (hash 7da5e2a37ec4, from methods/pfagent/method.json prompt_files)
You are a power system power-flow analysis assistant. You help the user complete power system analysis tasks from natural-language requests.

## What you can do
You complete tasks by calling tool functions:
1. Load an IEEE standard test system (14, 30, 57, 118, 300 buses)
2. Run AC power flow
3. Modify the load at a bus and re-solve
4. Disconnect or reconnect a line and re-solve
5. Query the network status
6. Run an N-1 contingency analysis (disconnect branches one at a time and rank the worst cases)
7. Generate remedial-action suggestions (what-if load shedding or voltage adjustment) to reduce violation risk

## Key rules
- Never fabricate any numerical result. Every voltage, power, loss, or loading value must come from a tool return value.
- If a tool reports an error or a non-converged power flow, say so explicitly and do not report numbers for that state.
- If the request is ambiguous, state the interpretation you are using.
- Bus and line identifiers in the request are MATPOWER 1-based ids; pass them to the tools as given, unless the request itself states a different indexing convention for that identifier (e.g. "(0-based)"), in which case convert it to the MATPOWER 1-based id before calling any tool.
- After a network modification, re-solve before reporting any value.
- Always reply in English.

## Reply format
After each analysis, reply in this structure:
1. One-sentence summary
2. Key numbers (total load, total generation, total losses, voltage range) taken from the tool outputs
3. Violations, if any
4. Suggested next step

[user]
Load the IEEE 14-bus system and set the active load at bus 10 (0-based) to 4.7 MW.

--- round 1 ---
[assistant]   (939 in / 48 out tokens, 5.7 s)
(no text)
tool_call  load_case(case_name="case14")
[tool load_case]   (gate: not applied)
{"case_name": "case14", "n_buses": 14, "n_generators": 5, "n_lines": 20, "n_loads": 11, "total_load_mw": 263.708166484847, "total_gen_capacity_mw": 772.4000000000001}

--- round 2 ---
[assistant]   (1039 in / 53 out tokens, 4.1 s)
(no text)
tool_call  set_active_load(bus_id=11, p_mw=4.7)
[tool set_active_load]   (gate: pass)
{"case_name": "case14", "converged": true, "bus_voltages": [{"bus_id": 1, "vm_pu": 1.06, "va_deg": 0.0, "is_violation": true, "violation_type": "overvoltage"}, {"bus_id": 2, "vm_pu": 1.0449999999999997, "va_deg": -5.037299668979884, "is_violation": false, "violation_type": null}, {"bus_id": 3, "vm_pu": 1.01, "va_deg": -13.235531569490234, "is_violation": false, "violation_type": null}, {"bus_id": 4, "vm_pu": 1.017768891168846, "va_deg": -10.53567184909971, "is_violation": false, "violation_type": null}, {"bus_id": 5, "vm_pu": 1.0195394151664472, "va_deg": -8.93221988122744, "is_violation": false, "violation_type": null}, {"bus_id": 6, "vm_pu": 1.0699999999999998, "va_deg": -14.347939779638521, "is_violation": true, "violation_type": "overvoltage"}, {"bus_id": 7, "vm_pu": 1.0623046509349887, "va_deg": -13.498513151444563, "is_violation": true, "violation_type": "overvoltage"}, {"bus_id": 8, "vm_pu": 1.09, "va_deg": -13.49851315144456, "is_violation": true, "violation_type": "overvoltage"}, {"bus_id": 9, "vm_pu": 1.0575032643136304, "va_deg": -15.031829805111217, "is_violation": true, "violation_type": "overvoltage"}, {"bus_id": 10, "vm_pu": 1.0526018741246297, "va_deg": -15.203144807869656, "is_violation": true, "violation_type": "overvoltage"}, {"bus_id": 11, "vm_pu": 1.0573776497870526, "va_deg": -14.971232478554388, "is_violation": true, "violation_type": "overvoltage"}, {"bus_id": 12, "vm_pu": 1.0552464369720413, "va_deg": -15.201164692792446, "is_violation": true, "violation_type": "overvoltage"}, {"bus_id": 13, "vm_pu": 1.0507657389763017, "va_deg": -15.274310156312831, "is_violation": true, "violation_type": "overvoltage"}, {"bus_id": 14, "vm_pu": 1.0362927137868014, "va_deg": -16.153022745191514, "is_violation": false, "violation_type": null}], "line_flows": [{"line_id": 0, "from_bus": 1, "to_bus": 2, "p_from_mw": 158.53730538697147, "q_from_mvar": -20.79005543638758, "loading_percent": 1.5236769972352049, "is_violation": false}, {"line_id": 1, "from_bus": 1, "to_bus": 5, "p_from_mw": 76.80650597662903, "q_from_mvar": 3.735123837435584, "loading_percent": 0.7331506423634724, "is_violation": false}, {"line_id": 2, "from_bus": 2, "to_bus": 3, "p_from_mw": 77.34522449061441, "q_from_mvar": 3.1732029025660204, "loading_percent": 0.7482954670052891, "is_violation": false}, {"line_id": 3, "from_bus": 2, "to_bus": 4, "p_from_mw": 57.757645262232714, "q_from_mvar": -1.9771867751737466, "loading_percent": 0.5586146377222498, "is_violation": false}, {"line_id": 4, "from_bus": 2, "to_bus": 5, "p_from_mw": 42.53344356779918, "q_from_mvar": 0.8968027131133738, "loading_percent": 0.4123501779737062, "is_violation": false}, {"line_id": 5, "from_bus": 3, "to_bus": 4, "p_from_mw": -25.875120855376483, "q_from_mvar": 5.564389749766049, "loading_percent": 0.2674546145543117, "is_violation": false}, {"line_id": 6, "from_bus": 4, "to_bus": 5, "p_from_mw": -63.609260246656795, "q_from_mvar": 16.851497806175058, "loading_percent": 0.6530781385863623, "is_violation": false}, {"line_id": 7, "from_bus": 6, "to_bus": 11, "p_from_mw": 7.692371715386059, "q_from_mvar": 3.1506511402282347, "loading_percent": 0.07847250039947505, "is_violation": false}, {"line_id": 8, "from_bus": 6, "to_bus": 12, "p_from_mw": 7.768004947196755, "q_from_mvar": 2.487725640693297, "loading_percent": 0.07700022744030495, "is_violation": false}, {"line_id": 9, "from_bus": 6, "to_bus": 13, "p_from_mw": 17.516584932812197, "q_from_mvar": 7.016496467625247, "loading_percent": 0.1781327707416861, "is_violation": false}, {"line_id": 10, "from_bus": 9, "to_bus": 10, "p_from_mw": 5.474344442857483, "q_from_mvar": 4.079080397733169, "loading_percent": 0.06520940926584162, "is_violation": false}, {"line_id": 11, "from_bus": 9, "to_bus": 14, "p_from_mw": 9.719276084485065, "q_from_mvar": 3.80422709189559, "loading_percent": 0.09969416508506014, "is_violation": false}, {"line_id": 12, "from_bus": 10, "to_bus": 11, "p_from_mw": -2.9273279319931307, "q_from_mvar": -1.3620037214412195, "loading_percent": 0.030983050779796257, "is_violation": false}, {"line_id": 13, "from_bus": 12, "to_bus": 13, "p_from_mw": 1.4958733119943373, "q_from_mvar": 0.7126580143220673, "loading_percent": 0.01586072704265422, "is_violation": false}, {"line_id": 14, "from_bus": 13, "to_bus": 14, "p_from_mw": 5.609475830657031, "q_from_mvar": 1.651496316812398, "loading_percent": 0.05621234342245507, "is_violation": false}, {"line_id": 100000, "from_bus": 4, "to_bus": 7, "p_from_mw": 27.3247385672917, "q_from_mvar": -10.062838278917779, "loading_percent": 0.28899376720673026, "is_violation": false}, {"line_id": 100001, "from_bus": 4, "to_bus": 9, "p_from_mw": 15.655424613744792, "q_from_mvar": -0.7402429233176235, "loading_percent": 0.15554835570058706, "is_violation": false}, {"line_id": 100002, "from_bus": 5, "to_bus": 6, "p_from_mw": 43.83525644843528, "q_from_mvar": 12.458822790334452, "loading_percent": 0.4514951621435782, "is_violation": false}, {"line_id": 100003, "from_bus": 7, "to_bus": 8, "p_from_mw": -1.887395367532304e-14, "q_from_mvar": -16.70218457055323, "loading_percent": 0.15881407928281577, "is_violation": false}, {"line_id": 100004, "from_bus": 7, "to_bus": 9, "p_from_mw": 27.324738566878192, "q_from_mvar": 5.002075095289718, "loading_percent": 0.2641370394525277, "is_violation": false}], "total_generation_mw": 279.3168953269224, "total_load_mw": 265.1987974136646, "total_loss_mw": 14.118097918939323, "voltage_violations": [{"bus_id": 1, "vm_pu": 1.06, "va_deg": 0.0, "is_violation": true, "violation_type": "overvoltage"}, {"bus_id": 6, "vm_pu": 1.0699999999999998, "va_deg": -14.347939779638521, "is_violation": true, "violation_type": "overvoltage"}, {"bus_id": 7, "vm_pu": 1.0623046509349887, "va_deg": -13.498513151444563, "is_violation": true, "violation_type": "overvoltage"}, {"bus_id": 8, "vm_pu": 1.09, "va_deg": -13.49851315144456, "is_violation": true, "violation_type": "overvoltage"}, {"bus_id": 9, "vm_pu": 1.0575032643136304, "va_deg": -15.031829805111217, "is_violation": true, "violation_type": "overvoltage"}, {"bus_id": 10, "vm_pu": 1.0526018741246297, "va_deg": -15.203144807869656, "is_violation": true, "violation_type": "overvoltage"}, {"bus_id": 11, "vm_pu": 1.0573776497870526, "va_deg": -14.971232478554388, "is_violation": true, "violation_type": "overvoltage"}, {"bus_id": 12, "vm_pu": 1.0552464369720413, "va_deg": -15.201164692792446, "is_violation": true, "violation_type": "overvoltage"}, {"bus_id": 13, "vm_pu": 1.0507657389763017, "va_deg": -15.274310156312831, "is_violation": true, "violation_type": "overvoltage"}], "thermal_violations": [], "summary_text": "", "solver_backend": "pandapower", "llm_prompt": null, "llm_response": null, "resolved_bus_id": 11, "assumption": "reactive load at this bus is unchanged from its present value"}

--- round 3 ---
[assistant]   (3823 in / 256 out tokens, 4.2 s)
The IEEE 14-bus system was loaded, and active load at **0-based bus 10 (MATPOWER bus 11)** was set to **4.7 MW**; the AC power flow converged.

**Key numbers**
- Total load: **265.199 MW**
- Total generation: **279.317 MW**
- Total active-power losses: **14.118 MW**
- Voltage range: **1.010–1.090 p.u.**
- Reactive load at bus 11: **unchanged**

**Violations**
- Overvoltage at buses **1, 6, 7, 8, 9, 10, 11, 12, and 13**
- Highest voltage: **1.090 p.u. at bus 8**
- No thermal violations

**Suggested next step:** Review voltage-control remedial actions to reduce the overvoltages.

[final answer]
The IEEE 14-bus system was loaded, and active load at **0-based bus 10 (MATPOWER bus 11)** was set to **4.7 MW**; the AC power flow converged.

**Key numbers**
- Total load: **265.199 MW**
- Total generation: **279.317 MW**
- Total active-power losses: **14.118 MW**
- Voltage range: **1.010–1.090 p.u.**
- Reactive load at bus 11: **unchanged**

**Violations**
- Overvoltage at buses **1, 6, 7, 8, 9, 10, 11, 12, and 13**
- Highest voltage: **1.090 p.u. at bus 8**
- No thermal violations

**Suggested next step:** Review voltage-control remedial actions to reduce the overvoltages.

[verification gate]   outcome: pass_first after 1 attempt(s)
attempt 1: pass
  V1  converged              pass  residual 0
  V2  balance                pass  residual 5.68e-09
  V3  no_isolated_buses      pass  residual 0
  V4  faithfulness           pass  residual 0
  V5  currency               pass  residual 0
  V6  argument_grounding     pass  every mutating-tool argument traces to the request or a prior tool output
  V7  claims_from_tools      pass  answer matches the agent's own last solved state
